LTspice 24.0.9 for Windows
Circuit: * C:\Users\piate\Documents\GitHub\Universal_charger\LTspice\balanser_ostateczna_wersja.asc
Start Time: Thu Apr 18 23:03:21 2024
Warning: Multiple definitions of model "2scr375p" Type: BJT
Warning: Multiple definitions of model "bc857b" Type: BJT
Warning: Multiple definitions of model "bc847c" Type: BJT
Warning: Multiple definitions of model "bc847b" Type: BJT
solver = Normal
Maximum thread count: 16
tnom = 27
temp = 27
method = modified trap
WARNING: Specified period is not longer than the sum of Trise, Tfall, and Ton for v1.  Increasing period to 11
Limiting fall time of source v1 to 2.13163e-15
WARNING: Specified period is not longer than the sum of Trise, Tfall, and Ton for v2.  Increasing period to 11
Limiting fall time of source v2 to 2.13163e-15
WARNING: Specified period is not longer than the sum of Trise, Tfall, and Ton for v3.  Increasing period to 11
Limiting fall time of source v3 to 2.13163e-15
WARNING: Specified period is not longer than the sum of Trise, Tfall, and Ton for v4.  Increasing period to 11
Limiting fall time of source v4 to 2.13163e-15
WARNING: Specified period is not longer than the sum of Trise, Tfall, and Ton for v5.  Increasing period to 11
Limiting fall time of source v5 to 2.13163e-15
WARNING: Specified period is not longer than the sum of Trise, Tfall, and Ton for v6.  Increasing period to 11
Limiting fall time of source v6 to 2.13163e-15
Early termination of direct N-R iteration.
Direct Newton iteration failed to find .op point.  (Use ".option noopiter" to skip.)
Starting Gmin stepping
Gmin = 10
Gmin = 1.07374
Gmin = 0.115292
Gmin = 0.0123794
Gmin = 0.00132923
Gmin = 0.000142725
Gmin = 1.5325e-05
Gmin = 1.6455e-06
Gmin = 1.76685e-07
Gmin = 1.89714e-08
vernier = 0.5
vernier = 0.25
vernier = 0.125
Gmin = 1.01577e-08
vernier = 0.0625
vernier = 0.03125
vernier = 0.0416667
Gmin = 9.52061e-09
vernier = 0.0208333
vernier = 0.0277778
Gmin = 9.11723e-09
vernier = 0.037037
vernier = 0.0185185
vernier = 0.0246913
Gmin = 8.73272e-09
vernier = 0.0329218
vernier = 0.0164609
Gmin = 8.36442e-09
vernier = 0.0219478
vernier = 0.0292638
Gmin = 7.91186e-09
vernier = 0.0390184
Gmin = 7.24971e-09
vernier = 0.0520245
vernier = 0.0693659
Gmin = 6.26298e-09
vernier = 0.0924879
vernier = 0.123317
Gmin = 4.96489e-09
vernier = 0.164423
Gmin = 3.45298e-09
vernier = 0.21923
vernier = 0.292307
Gmin = 1.89074e-09
vernier = 0.389743
vernier = 0.519657
Gmin = 7.36214e-10
vernier = 0.692876
Gmin = 1.732e-10
vernier = 0.923834
vernier = 1
Gmin = 2.03914e-11
Gmin = 2.18951e-12
Gmin = 2.35097e-13
Gmin = 0
Gmin stepping succeeded in finding the operating point.

Total elapsed time: 0.665 seconds.

